/*--------------------------------*- C++ -*----------------------------------*\
| =========                 |                                                 |
| \\      /  F ield         | OpenFOAM: The Open Source CFD Toolbox           |
|  \\    /   O peration     | Version:  4.x                                   |
|   \\  /    A nd           | Web:      www.OpenFOAM.org                      |
|    \\/     M anipulation  |                                                 |
\*---------------------------------------------------------------------------*/
FoamFile
{
    version     2.0;
    format      ascii;
    class       polyBoundaryMesh;
    location    "constant/polyMesh";
    object      boundary;
}
// * * * * * * * * * * * * * * * * * * * * * * * * * * * * * * * * * * * * * //

6
(
    walls
    {
        type            wall;
        inGroups        1(wall);
        nFaces          1800;
        startFace       22500;
    }
    topInlet
    {
        type            patch;
        nFaces          100;
        startFace       24300;
    }
    bottomInlet
    {
        type            patch;
        nFaces          100;
        startFace       24400;
    }
    outlet
    {
        type            patch;
        nFaces          200;
        startFace       24500;
    }
    reflecting
    {
        type            patch;
        nFaces          800;
        startFace       24700;
    }
    frontBack
    {
        type            empty;
        inGroups        1(empty);
        nFaces          0;
        startFace       25500;
    }
)

// ************************************************************************* //
